<?xml version="1.0" encoding="UTF-8"?>

<!-- generated on 2022-04-21 18:40:21 by Eclipse SUMO netconvert Version 1.10.0
<configuration xmlns:xsi="http://www.w3.org/2001/XMLSchema-instance" xsi:noNamespaceSchemaLocation="http://sumo.dlr.de/xsd/netconvertConfiguration.xsd">

    <input>
        <sumo-net-file value="DCC.net.xml"/>
    </input>

    <output>
        <output-file value="center10.net.xml"/>
        <output.street-names value="true"/>
    </output>

    <processing>
        <geometry.min-radius.fix.railways value="false"/>
        <geometry.max-grade.fix value="false"/>
        <offset.disable-normalization value="true"/>
        <lefthand value="true"/>
    </processing>

    <edge_removal>
        <keep-edges.input-file value="center10.txt"/>
    </edge_removal>

    <junctions>
        <no-turnarounds value="true"/>
        <junctions.corner-detail value="5"/>
        <junctions.limit-turn-speed value="5.5"/>
        <rectangular-lane-cut value="false"/>
    </junctions>

    <pedestrian>
        <walkingareas value="false"/>
    </pedestrian>

    <report>
        <aggregate-warnings value="5"/>
    </report>

</configuration>
-->

<net version="1.9" junctionCornerDetail="5" lefthand="true" limitTurnSpeed="5.50" xmlns:xsi="http://www.w3.org/2001/XMLSchema-instance" xsi:noNamespaceSchemaLocation="http://sumo.dlr.de/xsd/net_file.xsd">

    <location netOffset="-677749.85,-5911444.78" convBoundary="3225.51,2021.72,4313.56,3160.65" origBoundary="-6.368224,53.318846,-6.186539,53.396212" projParameter="+proj=utm +zone=29 +ellps=WGS84 +datum=WGS84 +units=m +no_defs"/>

    <type id="highway.bridleway" priority="1" numLanes="1" speed="2.78" allow="pedestrian" oneway="1" width="2.00"/>
    <type id="highway.bus_guideway" priority="1" numLanes="1" speed="27.78" allow="bus" oneway="1"/>
    <type id="highway.cycleway" priority="1" numLanes="1" speed="8.33" allow="bicycle" oneway="0" width="1.00"/>
    <type id="highway.footway" priority="1" numLanes="1" speed="2.78" allow="pedestrian" oneway="1" width="2.00"/>
    <type id="highway.ford" priority="1" numLanes="1" speed="2.78" allow="army" oneway="0"/>
    <type id="highway.living_street" priority="2" numLanes="1" speed="2.78" disallow="tram rail_urban rail rail_electric ship" oneway="0"/>
    <type id="highway.motorway" priority="14" numLanes="2" speed="39.44" allow="private emergency authority army vip passenger hov taxi bus coach delivery truck trailer motorcycle evehicle custom1 custom2" oneway="1"/>
    <type id="highway.motorway_link" priority="9" numLanes="1" speed="22.22" allow="private emergency authority army vip passenger hov taxi bus coach delivery truck trailer motorcycle evehicle custom1 custom2" oneway="1"/>
    <type id="highway.path" priority="1" numLanes="1" speed="2.78" allow="pedestrian bicycle" oneway="1" width="2.00"/>
    <type id="highway.pedestrian" priority="1" numLanes="1" speed="2.78" allow="pedestrian" oneway="1" width="2.00"/>
    <type id="highway.primary" priority="12" numLanes="2" speed="27.78" disallow="tram rail_urban rail rail_electric ship" oneway="0"/>
    <type id="highway.primary_link" priority="7" numLanes="1" speed="22.22" disallow="tram rail_urban rail rail_electric ship" oneway="0"/>
    <type id="highway.raceway" priority="15" numLanes="2" speed="83.33" allow="vip" oneway="0"/>
    <type id="highway.residential" priority="3" numLanes="1" speed="13.89" disallow="tram rail_urban rail rail_electric ship" oneway="0"/>
    <type id="highway.secondary" priority="11" numLanes="2" speed="27.78" disallow="tram rail_urban rail rail_electric ship" oneway="0"/>
    <type id="highway.secondary_link" priority="6" numLanes="1" speed="22.22" disallow="tram rail_urban rail rail_electric ship" oneway="0"/>
    <type id="highway.service" priority="1" numLanes="1" speed="5.56" allow="pedestrian delivery bicycle" oneway="0"/>
    <type id="highway.stairs" priority="1" numLanes="1" speed="1.39" allow="pedestrian" oneway="1" width="2.00"/>
    <type id="highway.step" priority="1" numLanes="1" speed="1.39" allow="pedestrian" oneway="1" width="2.00"/>
    <type id="highway.steps" priority="1" numLanes="1" speed="1.39" allow="pedestrian" oneway="1" width="2.00"/>
    <type id="highway.tertiary" priority="10" numLanes="1" speed="22.22" disallow="tram rail_urban rail rail_electric ship" oneway="0"/>
    <type id="highway.tertiary_link" priority="5" numLanes="1" speed="22.22" disallow="tram rail_urban rail rail_electric ship" oneway="0"/>
    <type id="highway.track" priority="1" numLanes="1" speed="5.56" disallow="tram rail_urban rail rail_electric ship" oneway="0"/>
    <type id="highway.trunk" priority="13" numLanes="2" speed="27.78" disallow="pedestrian bicycle tram rail_urban rail rail_electric ship" oneway="0"/>
    <type id="highway.trunk_link" priority="8" numLanes="1" speed="22.22" disallow="pedestrian bicycle tram rail_urban rail rail_electric ship" oneway="0"/>
    <type id="highway.unclassified" priority="4" numLanes="1" speed="13.89" disallow="tram rail_urban rail rail_electric ship" oneway="0"/>
    <type id="highway.unsurfaced" priority="1" numLanes="1" speed="8.33" disallow="tram rail_urban rail rail_electric ship" oneway="0"/>
    <type id="railway.light_rail" priority="19" numLanes="1" speed="27.78" allow="rail_urban" oneway="1"/>
    <type id="railway.preserved" priority="16" numLanes="1" speed="27.78" allow="rail" oneway="1"/>
    <type id="railway.rail" priority="20" numLanes="1" speed="83.33" allow="rail rail_electric" oneway="1"/>
    <type id="railway.subway" priority="18" numLanes="1" speed="27.78" allow="rail_urban" oneway="1"/>
    <type id="railway.tram" priority="17" numLanes="1" speed="13.89" allow="tram" oneway="1"/>

    <edge id=":12639663_0" function="internal">
        <lane id=":12639663_0_0" index="0" disallow="tram rail_urban rail rail_electric rail_fast ship" speed="11.11" length="19.70" shape="3821.67,2724.65 3822.03,2730.95 3824.01,2735.80 3826.07,2739.76 3826.61,2743.41"/>
    </edge>
    <edge id=":12639663_1" function="internal">
        <lane id=":12639663_1_0" index="0" disallow="tram rail_urban rail rail_electric rail_fast ship" speed="8.25" length="15.24" shape="3824.84,2725.09 3824.94,2729.00 3826.44,2731.98 3829.34,2734.03 3833.64,2735.15"/>
        <lane id=":12639663_1_1" index="1" disallow="tram rail_urban rail rail_electric rail_fast ship" speed="6.82" length="10.06" shape="3828.01,2725.52 3828.10,2728.01 3829.14,2729.92 3831.12,2731.24 3834.05,2731.97"/>
    </edge>
    <edge id=":12639663_3" function="internal">
        <lane id=":12639663_3_0" index="0" disallow="tram rail_urban rail rail_electric rail_fast ship" speed="7.70" length="14.71" shape="3815.15,2737.22 3820.60,2737.77 3824.32,2738.98 3826.33,2740.86 3826.61,2743.41"/>
    </edge>
    <edge id=":12639663_4" function="internal">
        <lane id=":12639663_4_0" index="0" disallow="tram rail_urban rail rail_electric rail_fast ship" speed="13.89" length="18.43" shape="3815.15,2737.22 3820.53,2737.36 3824.21,2737.44 3827.88,2737.69 3833.22,2738.32"/>
        <lane id=":12639663_4_1" index="1" disallow="tram rail_urban rail rail_electric rail_fast ship" speed="13.89" length="18.43" shape="3815.25,2734.03 3820.73,2734.16 3824.47,2734.25 3828.21,2734.51 3833.64,2735.15"/>
        <lane id=":12639663_4_2" index="2" disallow="tram rail_urban rail rail_electric rail_fast ship" speed="13.89" length="18.43" shape="3815.36,2730.83 3820.92,2730.97 3824.73,2731.06 3828.53,2731.32 3834.05,2731.97"/>
    </edge>
    <edge id=":12639664_0" function="internal">
        <lane id=":12639664_0_0" index="0" disallow="tram rail_urban rail rail_electric rail_fast ship" speed="10.47" length="18.63" shape="3836.15,2661.17 3834.43,2665.81 3831.71,2669.29 3827.98,2671.60 3823.24,2672.74"/>
        <lane id=":12639664_0_1" index="1" disallow="tram rail_urban rail rail_electric rail_fast ship" speed="11.01" length="20.72" shape="3836.15,2661.17 3834.17,2667.25 3831.41,2671.74 3827.88,2674.63 3823.58,2675.93"/>
    </edge>
    <edge id=":12639664_2" function="internal">
        <lane id=":12639664_2_0" index="0" disallow="tram rail_urban rail rail_electric rail_fast ship" speed="13.89" length="20.75" shape="3836.15,2661.17 3834.05,2666.98 3831.61,2670.64 3829.35,2674.34 3827.78,2680.25"/>
        <lane id=":12639664_2_1" index="1" disallow="tram rail_urban rail rail_electric rail_fast ship" speed="13.89" length="20.75" shape="3839.27,2661.89 3837.18,2667.62 3834.76,2671.23 3832.51,2674.86 3830.95,2680.69"/>
        <lane id=":12639664_2_2" index="2" disallow="tram rail_urban rail rail_electric rail_fast ship" speed="13.89" length="20.75" shape="3842.39,2662.61 3840.32,2668.26 3837.91,2671.81 3835.67,2675.38 3834.12,2681.12"/>
    </edge>
    <edge id=":12639664_5" function="internal">
        <lane id=":12639664_5_0" index="0" disallow="tram rail_urban rail rail_electric rail_fast ship" speed="13.89" length="22.37" shape="3845.87,2667.76 3839.09,2667.13 3834.41,2667.55 3829.72,2668.52 3822.91,2669.56"/>
        <lane id=":12639664_5_1" index="1" disallow="tram rail_urban rail rail_electric rail_fast ship" speed="13.89" length="22.37" shape="3845.38,2670.92 3838.85,2670.33 3834.34,2670.76 3829.82,2671.73 3823.24,2672.74"/>
        <lane id=":12639664_5_2" index="2" disallow="tram rail_urban rail rail_electric rail_fast ship" speed="13.89" length="22.37" shape="3844.90,2674.09 3838.60,2673.53 3834.27,2673.97 3829.91,2674.93 3823.58,2675.93"/>
    </edge>
    <edge id=":12639664_8" function="internal">
        <lane id=":12639664_8_0" index="0" disallow="tram rail_urban rail rail_electric rail_fast ship" speed="8.94" length="18.18" shape="3844.41,2677.25 3837.42,2676.52 3832.31,2676.78 3829.10,2678.02 3827.78,2680.25"/>
        <lane id=":12639664_8_1" index="1" disallow="tram rail_urban rail rail_electric rail_fast ship" speed="8.22" length="15.20" shape="3844.41,2677.25 3838.80,2676.73 3834.69,2677.13 3832.07,2678.45 3830.95,2680.69"/>
        <lane id=":12639664_8_2" index="2" disallow="tram rail_urban rail rail_electric rail_fast ship" speed="7.45" length="12.29" shape="3844.41,2677.25 3840.19,2676.94 3837.06,2677.49 3835.04,2678.88 3834.12,2681.12"/>
    </edge>
    <edge id=":12649673_0" function="internal">
        <lane id=":12649673_0_0" index="0" disallow="tram rail_urban rail rail_electric rail_fast ship" speed="7.10" length="9.60" shape="3658.75,3001.03 3656.09,3000.47 3654.13,2999.30 3652.88,2997.53 3652.33,2995.16"/>
    </edge>
    <edge id=":12649673_1" function="internal">
        <lane id=":12649673_1_0" index="0" disallow="tram rail_urban rail rail_electric rail_fast ship" speed="8.33" length="21.45" shape="3658.75,3001.03 3654.01,3001.11 3648.06,3001.69 3642.11,3002.31 3637.36,3002.50"/>
    </edge>
    <edge id=":12649673_2" function="internal">
        <lane id=":12649673_2_0" index="0" disallow="tram rail_urban rail rail_electric rail_fast ship" speed="8.55" length="17.26" shape="3658.75,3001.03 3653.35,3001.14 3649.47,3002.56 3647.11,3005.29 3646.28,3009.33"/>
    </edge>
    <edge id=":12649673_3" function="internal">
        <lane id=":12649673_3_0" index="0" disallow="tram rail_urban rail rail_electric rail_fast ship" speed="6.36" length="9.04" shape="3652.68,3009.44 3653.07,3006.96 3654.17,3005.27 3655.97,3004.36 3658.47,3004.22"/>
    </edge>
    <edge id=":12649673_4" function="internal">
        <lane id=":12649673_4_0" index="0" disallow="tram rail_urban rail rail_electric rail_fast ship" speed="13.89" length="14.15" shape="3652.68,3009.44 3652.75,3005.19 3652.74,3002.29 3652.62,2999.39 3652.33,2995.16"/>
        <lane id=":12649673_4_1" index="1" disallow="tram rail_urban rail rail_electric rail_fast ship" speed="13.89" length="14.15" shape="3649.48,3009.39 3649.54,3005.23 3649.54,3002.38 3649.42,2999.54 3649.13,2995.39"/>
    </edge>
    <edge id=":12649673_6" function="internal">
        <lane id=":12649673_6_0" index="0" disallow="tram rail_urban rail rail_electric rail_fast ship" speed="8.40" length="4.00" shape="3649.48,3009.39 3648.76,3006.59 3647.93,3005.83"/>
    </edge>
    <edge id=":12649673_11" function="internal">
        <lane id=":12649673_11_0" index="0" disallow="tram rail_urban rail rail_electric rail_fast ship" speed="8.40" length="11.37" shape="3647.93,3005.83 3646.50,3004.51 3642.70,3003.15 3637.36,3002.50"/>
    </edge>
    <edge id=":12649673_7" function="internal">
        <lane id=":12649673_7_0" index="0" disallow="tram rail_urban rail rail_electric rail_fast ship" speed="6.55" length="10.02" shape="3642.75,2995.87 3642.61,2998.88 3641.66,3000.98 3639.91,3002.19 3637.36,3002.50"/>
    </edge>
    <edge id=":12649673_8" function="internal">
        <lane id=":12649673_8_0" index="0" disallow="tram rail_urban rail rail_electric rail_fast ship" speed="13.89" length="13.57" shape="3642.75,2995.87 3643.03,2999.85 3643.14,3002.57 3643.14,3005.30 3643.08,3009.28"/>
        <lane id=":12649673_8_1" index="1" disallow="tram rail_urban rail rail_electric rail_fast ship" speed="13.89" length="13.57" shape="3645.94,2995.63 3646.23,2999.69 3646.34,3002.48 3646.34,3005.26 3646.28,3009.33"/>
    </edge>
    <edge id=":12649673_10" function="internal">
        <lane id=":12649673_10_0" index="0" disallow="tram rail_urban rail rail_electric rail_fast ship" speed="9.16" length="4.82" shape="3645.94,2995.63 3646.94,2998.99 3647.84,2999.95"/>
    </edge>
    <edge id=":12649673_12" function="internal">
        <lane id=":12649673_12_0" index="0" disallow="tram rail_urban rail rail_electric rail_fast ship" speed="9.16" length="11.77" shape="3647.84,2999.95 3649.36,3001.55 3653.20,3003.29 3658.47,3004.22"/>
    </edge>
    <edge id=":12649678_0" function="internal">
        <lane id=":12649678_0_0" index="0" disallow="tram rail_urban rail rail_electric rail_fast ship" speed="7.36" length="10.78" shape="3846.09,3022.48 3843.11,3021.06 3841.15,3019.28 3840.22,3017.14 3840.31,3014.64"/>
    </edge>
    <edge id=":12649678_1" function="internal">
        <lane id=":12649678_1_0" index="0" disallow="tram rail_urban rail rail_electric rail_fast ship" speed="8.33" length="15.29" shape="3846.09,3022.48 3842.48,3021.30 3838.77,3020.29 3835.01,3019.44 3831.28,3018.76"/>
    </edge>
    <edge id=":12649678_2" function="internal">
        <lane id=":12649678_2_0" index="0" disallow="tram rail_urban rail rail_electric rail_fast ship" speed="8.11" length="14.70" shape="3846.09,3022.48 3842.25,3021.74 3839.07,3022.49 3836.55,3024.72 3834.68,3028.43"/>
    </edge>
    <edge id=":12649678_3" function="internal">
        <lane id=":12649678_3_0" index="0" disallow="tram rail_urban rail rail_electric rail_fast ship" speed="6.64" length="9.51" shape="3837.71,3029.48 3838.92,3027.03 3840.54,3025.55 3842.58,3025.04 3845.02,3025.50"/>
    </edge>
    <edge id=":12649678_4" function="internal">
        <lane id=":12649678_4_0" index="0" disallow="tram rail_urban rail rail_electric rail_fast ship" speed="8.33" length="15.08" shape="3837.71,3029.48 3838.64,3025.85 3839.20,3022.12 3839.67,3018.35 3840.31,3014.64"/>
    </edge>
    <edge id=":12649678_5" function="internal">
        <lane id=":12649678_5_0" index="0" disallow="tram rail_urban rail rail_electric rail_fast ship" speed="7.72" length="14.90" shape="3837.71,3029.48 3838.49,3025.36 3837.68,3022.20 3835.28,3020.00 3831.28,3018.76"/>
    </edge>
    <edge id=":12649678_6" function="internal">
        <lane id=":12649678_6_0" index="0" disallow="tram rail_urban rail rail_electric rail_fast ship" speed="6.16" length="9.05" shape="3830.77,3021.92 3833.20,3022.68 3834.67,3024.01 3835.16,3025.93 3834.68,3028.43"/>
    </edge>
    <edge id=":12649678_7" function="internal">
        <lane id=":12649678_7_0" index="0" disallow="tram rail_urban rail rail_electric rail_fast ship" speed="8.33" length="14.71" shape="3830.77,3021.92 3834.42,3022.58 3837.98,3023.38 3841.50,3024.34 3845.02,3025.50"/>
    </edge>
    <edge id=":12649678_8" function="internal">
        <lane id=":12649678_8_0" index="0" disallow="tram rail_urban rail rail_electric rail_fast ship" speed="8.00" length="13.48" shape="3830.77,3021.92 3834.22,3021.92 3836.96,3020.71 3838.99,3018.28 3840.31,3014.64"/>
    </edge>
    <edge id=":12649688_0" function="internal">
        <lane id=":12649688_0_0" index="0" disallow="tram rail_urban rail rail_electric rail_fast ship" speed="7.08" length="8.38" shape="3522.51,2997.39 3520.04,2997.04 3518.13,2996.22 3516.77,2994.93 3515.97,2993.17"/>
    </edge>
    <edge id=":12649688_1" function="internal">
        <lane id=":12649688_1_0" index="0" disallow="tram rail_urban rail rail_electric rail_fast ship" speed="6.33" length="11.22" shape="3522.51,2997.39 3518.77,2997.62 3516.46,2998.70 3515.58,3000.62 3516.12,3003.37"/>
    </edge>
    <edge id=":12649688_2" function="internal">
        <lane id=":12649688_2_0" index="0" disallow="tram rail_urban rail rail_electric rail_fast ship" speed="8.33" length="9.56" shape="3519.10,3002.19 3518.04,2999.56 3517.33,2997.75 3516.72,2995.90 3515.97,2993.17"/>
    </edge>
    <edge id=":12649688_3" function="internal">
        <lane id=":12649688_3_0" index="0" disallow="tram rail_urban rail rail_electric rail_fast ship" speed="8.33" length="9.94" shape="3512.87,2993.99 3513.66,2996.83 3514.29,2998.75 3515.02,3000.64 3516.12,3003.37"/>
    </edge>
    <edge id=":130235976_0" function="internal">
        <lane id=":130235976_0_0" index="0" disallow="tram rail_urban rail rail_electric rail_fast ship" speed="6.00" length="9.08" shape="3508.06,2865.06 3505.66,2866.04 3503.72,2865.90 3502.24,2864.63 3501.23,2862.24"/>
    </edge>
    <edge id=":130235976_1" function="internal">
        <lane id=":130235976_1_0" index="0" disallow="tram rail_urban rail rail_electric rail_fast ship" speed="8.33" length="13.44" shape="3508.06,2865.06 3504.51,2867.50 3502.06,2870.02 3500.72,2872.62 3500.48,2875.30"/>
    </edge>
    <edge id=":130235976_2" function="internal">
        <lane id=":130235976_2_0" index="0" disallow="tram rail_urban rail rail_electric rail_fast ship" speed="8.33" length="12.94" shape="3503.66,2874.93 3503.22,2871.53 3502.71,2868.54 3502.07,2865.57 3501.23,2862.24"/>
    </edge>
    <edge id=":130235976_3" function="internal">
        <lane id=":130235976_3_0" index="0" disallow="tram rail_urban rail rail_electric rail_fast ship" speed="6.17" length="9.05" shape="3494.14,2871.11 3496.66,2870.75 3498.56,2871.32 3499.83,2872.84 3500.48,2875.30"/>
    </edge>
    <edge id=":130235976_4" function="internal">
        <lane id=":130235976_4_0" index="0" disallow="tram rail_urban rail rail_electric rail_fast ship" speed="7.69" length="12.77" shape="3494.14,2871.11 3497.87,2869.59 3500.29,2867.60 3501.41,2865.15 3501.23,2862.24"/>
    </edge>
    <edge id=":130235976_5" function="internal">
        <lane id=":130235976_5_0" index="0" disallow="tram rail_urban rail rail_electric rail_fast ship" speed="8.33" length="12.48" shape="3498.14,2863.06 3498.96,2866.32 3499.57,2869.13 3500.05,2871.97 3500.48,2875.30"/>
    </edge>
    <edge id=":130236108_0" function="internal">
        <lane id=":130236108_0_0" index="0" disallow="tram rail_urban rail rail_electric rail_fast ship" speed="13.89" length="11.93" shape="3623.29,2833.82 3622.72,2830.59 3622.19,2827.95 3621.57,2825.33 3620.71,2822.17"/>
    </edge>
    <edge id=":130236108_1" function="internal">
        <lane id=":130236108_1_0" index="0" disallow="tram rail_urban rail rail_electric rail_fast ship" speed="7.86" length="3.93" shape="3623.29,2833.82 3622.08,2831.23 3621.14,2830.72"/>
    </edge>
    <edge id=":130236108_5" function="internal">
        <lane id=":130236108_5_0" index="0" disallow="tram rail_urban rail rail_electric rail_fast ship" speed="7.86" length="10.97" shape="3621.14,2830.72 3619.55,2829.87 3615.69,2829.75 3610.50,2830.86"/>
    </edge>
    <edge id=":130236108_2" function="internal">
        <lane id=":130236108_2_0" index="0" disallow="tram rail_urban rail rail_electric rail_fast ship" speed="6.58" length="9.15" shape="3614.55,2823.90 3614.86,2826.33 3614.29,2828.30 3612.84,2829.81 3610.50,2830.86"/>
    </edge>
    <edge id=":130236108_3" function="internal">
        <lane id=":130236108_3_0" index="0" disallow="tram rail_urban rail rail_electric rail_fast ship" speed="13.89" length="11.44" shape="3614.55,2823.90 3615.44,2827.13 3615.98,2829.35 3616.42,2831.60 3616.98,2834.90"/>
        <lane id=":130236108_3_1" index="1" disallow="tram rail_urban rail rail_electric rail_fast ship" speed="13.89" length="11.44" shape="3617.63,2823.04 3618.55,2826.36 3619.11,2828.65 3619.55,2830.96 3620.14,2834.36"/>
    </edge>
    <edge id=":1306049161_0" function="internal">
        <lane id=":1306049161_0_0" index="0" disallow="tram rail_urban rail rail_electric rail_fast ship" speed="3.65" length="4.67" shape="3809.86,2154.52 3809.32,2153.18 3808.62,2152.62 3807.76,2152.85 3806.72,2153.86"/>
    </edge>
    <edge id=":1306049162_0" function="internal">
        <lane id=":1306049162_0_0" index="0" disallow="tram rail_urban rail rail_electric rail_fast ship" speed="6.39" length="8.95" shape="3791.23,2183.94 3790.41,2186.25 3789.04,2187.70 3787.12,2188.30 3784.64,2188.05"/>
    </edge>
    <edge id=":1306049162_1" function="internal">
        <lane id=":1306049162_1_0" index="0" disallow="tram rail_urban rail rail_electric rail_fast ship" speed="8.33" length="14.25" shape="3791.23,2183.94 3788.70,2197.97"/>
    </edge>
    <edge id=":1306049162_2" function="internal">
        <lane id=":1306049162_2_0" index="0" disallow="tram rail_urban rail rail_electric rail_fast ship" speed="8.33" length="14.14" shape="3791.85,2198.48 3794.37,2184.57"/>
    </edge>
    <edge id=":1306049162_3" function="internal">
        <lane id=":1306049162_3_0" index="0" disallow="tram rail_urban rail rail_electric rail_fast ship" speed="8.25" length="14.22" shape="3791.85,2198.48 3791.91,2194.71 3790.73,2191.71 3788.30,2189.49 3784.64,2188.05"/>
    </edge>
    <edge id=":1306049162_4" function="internal">
        <lane id=":1306049162_4_0" index="0" disallow="tram rail_urban rail rail_electric rail_fast ship" speed="6.80" length="9.35" shape="3783.87,2191.16 3786.31,2192.11 3787.93,2193.56 3788.72,2195.51 3788.70,2197.97"/>
    </edge>
    <edge id=":1306049162_5" function="internal">
        <lane id=":1306049162_5_0" index="0" disallow="tram rail_urban rail rail_electric rail_fast ship" speed="7.90" length="14.28" shape="3783.87,2191.16 3787.81,2191.56 3790.88,2190.59 3793.06,2188.26 3794.37,2184.57"/>
    </edge>
    <edge id=":1306049164_0" function="internal">
        <lane id=":1306049164_0_0" index="0" disallow="tram rail_urban rail rail_electric rail_fast ship" speed="3.65" length="4.67" shape="3768.38,2184.06 3767.03,2184.55 3766.45,2185.23 3766.64,2186.10 3767.62,2187.16"/>
    </edge>
    <edge id=":1396845249_0" function="internal">
        <lane id=":1396845249_0_0" index="0" disallow="tram rail_urban rail rail_electric rail_fast ship" speed="7.08" length="9.64" shape="3939.68,3030.72 3938.88,3033.02 3937.43,3034.64 3935.35,3035.58 3932.62,3035.84"/>
    </edge>
    <edge id=":1396845249_1" function="internal">
        <lane id=":1396845249_1_0" index="0" disallow="tram rail_urban rail rail_electric rail_fast ship" speed="6.97" length="10.36" shape="3939.68,3030.72 3939.48,3033.80 3940.15,3036.17 3941.68,3037.81 3944.07,3038.74"/>
    </edge>
    <edge id=":1396845249_2" function="internal">
        <lane id=":1396845249_2_0" index="0" disallow="tram rail_urban rail rail_electric rail_fast ship" speed="6.70" length="10.32" shape="3937.65,3044.89 3938.34,3041.77 3939.65,3039.71 3941.55,3038.70 3944.07,3038.74"/>
    </edge>
    <edge id=":1396845249_3" function="internal">
        <lane id=":1396845249_3_0" index="0" disallow="tram rail_urban rail rail_electric rail_fast ship" speed="7.17" length="11.87" shape="3937.65,3044.89 3937.69,3040.99 3936.87,3038.18 3935.18,3036.47 3932.62,3035.84"/>
    </edge>
    <edge id=":1396845249_4" function="internal">
        <lane id=":1396845249_4_0" index="0" disallow="tram rail_urban rail rail_electric rail_fast ship" speed="8.33" length="11.59" shape="3932.53,3039.04 3935.75,3038.91 3938.34,3038.57 3940.90,3038.39 3944.07,3038.74"/>
    </edge>
    <edge id=":1396858833_0" function="internal">
        <lane id=":1396858833_0_0" index="0" disallow="tram rail_urban rail rail_electric rail_fast ship" speed="8.33" length="14.50" shape="3990.81,2526.05 3988.07,2524.35 3986.32,2522.02 3984.91,2518.89 3983.19,2514.78"/>
        <lane id=":1396858833_0_1" index="1" disallow="tram rail_urban rail rail_electric rail_fast ship" speed="8.33" length="14.50" shape="3990.81,2526.05 3987.64,2524.62 3984.92,2522.83 3982.52,2520.17 3980.27,2516.09"/>
    </edge>
    <edge id=":1396858833_2" function="internal">
        <lane id=":1396858833_2_0" index="0" disallow="tram rail_urban rail rail_electric rail_fast ship" speed="8.33" length="13.88" shape="3975.74,2529.23 3977.72,2527.44 3980.52,2526.74 3984.14,2527.12 3988.59,2528.59"/>
    </edge>
    <edge id=":1396858833_3" function="internal">
        <lane id=":1396858833_3_0" index="0" disallow="tram rail_urban rail rail_electric rail_fast ship" speed="8.05" length="8.27" shape="3974.43,2518.72 3975.06,2520.72 3975.15,2522.70 3974.68,2524.65 3973.67,2526.58"/>
    </edge>
    <edge id=":1396858833_4" function="internal">
        <lane id=":1396858833_4_0" index="0" disallow="tram rail_urban rail rail_electric rail_fast ship" speed="8.33" length="16.33" shape="3977.35,2517.40 3979.83,2521.93 3982.46,2524.99 3985.34,2527.05 3988.59,2528.59"/>
    </edge>
    <edge id=":1396858845_0" function="internal">
        <lane id=":1396858845_0_0" index="0" disallow="tram rail_urban rail rail_electric rail_fast ship" speed="8.33" length="11.48" shape="3992.54,2618.90 3989.68,2630.02"/>
    </edge>
    <edge id=":1396858845_1" function="internal">
        <lane id=":1396858845_1_0" index="0" disallow="tram rail_urban rail rail_electric rail_fast ship" speed="7.26" length="11.79" shape="3992.54,2618.90 3992.37,2621.46 3993.47,2623.60 3995.85,2625.33 3999.50,2626.63"/>
    </edge>
    <edge id=":1396858845_2" function="internal">
        <lane id=":1396858845_2_0" index="0" disallow="tram rail_urban rail rail_electric rail_fast ship" speed="6.41" length="9.05" shape="3992.80,2630.74 3993.65,2628.41 3995.05,2626.95 3997.00,2626.36 3999.50,2626.63"/>
    </edge>
    <edge id=":1396858845_3" function="internal">
        <lane id=":1396858845_3_0" index="0" disallow="tram rail_urban rail rail_electric rail_fast ship" speed="8.33" length="11.29" shape="3992.80,2630.74 3995.61,2619.80"/>
    </edge>
    <edge id=":1408681832_0" function="internal">
        <lane id=":1408681832_0_0" index="0" disallow="tram rail_urban rail rail_electric rail_fast ship" speed="6.41" length="9.04" shape="3337.45,2309.93 3336.78,2312.33 3335.51,2313.91 3333.62,2314.65 3331.13,2314.57"/>
    </edge>
    <edge id=":1408681832_1" function="internal">
        <lane id=":1408681832_1_0" index="0" disallow="tram rail_urban rail rail_electric rail_fast ship" speed="8.33" length="14.39" shape="3337.45,2309.93 3335.69,2324.21"/>
    </edge>
    <edge id=":1408681832_2" function="internal">
        <lane id=":1408681832_2_0" index="0" disallow="tram rail_urban rail rail_electric rail_fast ship" speed="8.33" length="14.35" shape="3338.86,2324.59 3340.63,2310.35"/>
    </edge>
    <edge id=":1408681832_3" function="internal">
        <lane id=":1408681832_3_0" index="0" disallow="tram rail_urban rail rail_electric rail_fast ship" speed="8.19" length="14.24" shape="3338.86,2324.59 3338.75,2320.78 3337.43,2317.85 3334.89,2315.78 3331.13,2314.57"/>
    </edge>
    <edge id=":1408681832_4" function="internal">
        <lane id=":1408681832_4_0" index="0" disallow="tram rail_urban rail rail_electric rail_fast ship" speed="6.73" length="9.30" shape="3330.57,2317.72 3333.05,2318.51 3334.73,2319.86 3335.61,2321.76 3335.69,2324.21"/>
    </edge>
    <edge id=":1408681832_5" function="internal">
        <lane id=":1408681832_5_0" index="0" disallow="tram rail_urban rail rail_electric rail_fast ship" speed="7.92" length="14.37" shape="3330.57,2317.72 3334.53,2317.85 3337.53,2316.67 3339.56,2314.16 3340.63,2310.35"/>
    </edge>
    <edge id=":1408681833_0" function="internal">
        <lane id=":1408681833_0_0" index="0" disallow="tram rail_urban rail rail_electric rail_fast ship" speed="3.65" length="4.67" shape="3304.46,2309.84 3303.14,2310.42 3302.60,2311.14 3302.86,2312.00 3303.90,2313.00"/>
    </edge>
    <edge id=":1420456308_0" function="internal">
        <lane id=":1420456308_0_0" index="0" disallow="tram rail_urban rail rail_electric rail_fast ship" speed="10.94" length="16.65" shape="3562.16,2557.09 3559.05,2561.52 3555.94,2564.66 3552.81,2566.50 3549.66,2567.04"/>
    </edge>
    <edge id=":1420456308_1" function="internal">
        <lane id=":1420456308_1_0" index="0" disallow="tram rail_urban rail rail_electric rail_fast ship" speed="13.89" length="20.23" shape="3562.16,2557.09 3558.99,2562.29 3556.97,2566.15 3555.60,2570.25 3554.38,2576.19"/>
        <lane id=":1420456308_1_1" index="1" disallow="tram rail_urban rail rail_electric rail_fast ship" speed="13.89" length="20.23" shape="3564.89,2558.76 3561.84,2563.72 3559.95,2567.27 3558.68,2571.06 3557.54,2576.74"/>
    </edge>
    <edge id=":1420456308_3" function="internal">
        <lane id=":1420456308_3_0" index="0" disallow="tram rail_urban rail rail_electric rail_fast ship" speed="8.15" length="6.74" shape="3564.89,2558.76 3562.75,2563.93 3562.95,2565.06"/>
    </edge>
    <edge id=":1420456308_14" function="internal">
        <lane id=":1420456308_14_0" index="0" disallow="tram rail_urban rail rail_electric rail_fast ship" speed="8.15" length="13.52" shape="3562.95,2565.06 3563.44,2567.75 3566.98,2570.23 3573.35,2571.36"/>
    </edge>
    <edge id=":1420456308_4" function="internal">