<?xml version="1.0" encoding="UTF-8"?>
<!-- generated on 2022-04-21 18:40:56.928203 by cutRoutes.py UNKNOWN
  options: center10.net.xml DCC_emitters.emi.xml DCC_routes.rou.xml <doubleminus>routes-output center10.rou.xml <doubleminus>orig-net DCC.net.xml
-->
<routes xmlns:xsi="http://www.w3.org/2001/XMLSchema-instance" xsi:noNamespaceSchemaLocation="http://sumo.dlr.de/xsd/routes_file.xsd">
	<route edges="-369652831 -16309916#1 -16309916#0 -6192247#0 -360313823#1 23050596 23050598" id="394744908#1_to_23050598"/>
    <route edges="-369652831 -16309916#1 -16309916#0 -6192247#0 -360313823#1 23050596 23050597" id="394744908#1_to_23050597"/>
    <route edges="-369652831 -16309916#1 -16309916#0 6192247#2 16309919 369652830 264876950#0 60010826#3" id="394744908#1_to_60010826#3"/>
    <route edges="23045780#0 23045780#2 23045781" id="394744908#1_to_23045781"/>
    <route edges="23045780#0 23045780#2 23045782" id="394744908#1_to_23045782"/>
    <route edges="-369652831 -16309916#1 -16309916#0 -6192247#0 376466424#0 143866317#3 -20848455#2" id="394744908#1_to_4915298#0"/>
    <route edges="23045780#0 350497554" id="394744908#1_to_350497554"/>
    <route edges="-369652831 -16309916#1 -16309916#0 -6192247#0 -360313823#1 -360313823#0 6192171#0 52375081#0" id="394744908#1_to_52375081#0"/>
    <route edges="16309917#0" id="394744908#1_to_16309917#0"/>
    <route edges="-369652829#3 -360313823#1" id="-129217471#2_to_-360313823#1"/>
    <route edges="23045780#0 23045780#2" id="-129217471#2_to_23045780#2"/>
    <route edges="-369652831 -16309916#1 -16309916#0" id="-129217471#2_to_-16309916#0"/>
    <route edges="-369652829#3 376466424#0" id="-129217471#2_to_376466424#0"/>
    <route edges="23045780#0 350497554" id="-129217471#2_to_350497554"/>
    <route edges="-369652829#3 6192247#0" id="-129217471#2_to_6192247#0"/>
    <route edges="-369652829#3 -360313823#1 -360313823#0 6192171#0 52375081#0" id="4825341#2_to_52375081#0"/>
    <route edges="16309917#0 16309917#2 -6192247#2 23045804#0" id="4825341#2_to_23045804#0"/>
    <route edges="23045780#0 350497554" id="4825341#2_to_350497554"/>
    <route edges="16309917#0 16309917#2 -6192247#2 -6192247#0" id="4825341#2_to_-6192247#0"/>
    <route edges="16309917#0 229883910 369652830 264876950#0" id="4825341#2_to_264876950#0"/>
    <route edges="16309917#0 16309917#2 -6192247#2 16309916#0" id="4825341#2_to_16309916#0"/>
    <route edges="-369652829#3 -360313823#1 23050596 23050597" id="4825341#2_to_23050597"/>
    <route edges="23045780#0 23045780#2 23045782" id="4825341#2_to_23045782"/>
    <route edges="-369652829#3 -360313823#1 23050596 23050598" id="4825341#2_to_23050598"/>
    <route edges="-369652829#3 376466424#0 143866317#3 -20848455#2" id="4825341#2_to_4915298#0"/>
    <route edges="3789572 361409608#1 361409608#3 3789252#1 3789252#3 401912432#2 -372256221 -6273612#5 -6273612#1 35078319#0" id="13907386#0_to_35078324#0"/>
    <route edges="3789572 361409608#1 361409608#3 gneE33 -5976030 -227767347#1 -227767347#0 361585261#0 143866293#0 143866305#0 143866305#1 384312815 129211799#2 372226866 372226870#0 -38090686#4 -38090686#3 52375067#0 52375067#4" id="13907386#0_to_77499031#1"/>
    <route edges="3789572 361409608#1 361409608#3 gneE33 -5976030 -227767347#1 -227767347#0 361585261#0 361585261#1 227767349#2 366222937#1 366222937#2 129211842#0 143278854#0 360313823#0 360313823#1 369652829#0" id="13907386#0_to_240027181#0"/>
    <route edges="3789572 361409608#1 361409608#3 gneE33 -5976030 -227767347#1 -227767347#0 361585261#0 361585261#1 227767349#2 366222937#1 366222937#2 129211842#0 143278854#0 360313823#0 360313823#1 369652829#0 23045780#0 23045780#2 23045781" id="13907386#0_to_23045781"/>
    <route edges="3789572 361409608#1 361409608#3 gneE33 -5976030 -227767347#1 -227767347#0 361585261#0 143866293#0 143866305#0 143866305#1 384312815 129211799#2 372226866 372226870#0 -38090686#4 -38090686#3 52375067#0 52375067#4" id="13907386#0_to_127219367"/>
    <route edges="3789572 361409608#1 361409608#3 gneE33 -5976030 -227767347#1 -227767347#0 361585261#0 143866293#0 143866305#0 143866305#1 384312815 129211799#2 52375071 369988984#2 -52375060#2 -52375062" id="13907386#0_to_-52375062"/>
    <route edges="3789572 361409608#1 361409608#3 gneE33 -5976030 -227767347#1 -227767347#0 361585261#0 361585261#1 227767349#2 366222937#1 366222937#2 129211842#0 143278854#0 360313823#0 360313823#1 6192247#0 16309916#0 16309916#1 369652831 22962979" id="13907386#0_to_-341583777#1"/>
    <route edges="3789572 361409608#1 361409608#3 gneE33 -5976030 -227767347#1 -227767347#0 361585261#0 143866293#0 143866305#0 143866311#0 23395388#0 23395388#2 23395388#3 23395388#4 23395388#5 115656105" id="13907386#0_to_115656105"/>
    <route edges="3789572 361409608#1 361409608#3 gneE33 -5976030 -227767347#1 -227767347#0 361585261#0 143866293#0 143866305#0 143866311#0 23395388#0 23395388#2 23395388#3 25683461" id="13907386#0_to_25683461"/>
    <route edges="3789572 361409608#1 361409608#3 gneE33 -5976030 -227767347#1 -227767347#0 361585261#0 143866293#0 143866305#0 143866305#1 384312815 129211799#2 372226866 372226870#0 -38090686#4 -38090686#3 -38090686#2 -38090686#1 129211827#1 129211803#0 75450417" id="13907386#0_to_75450417"/>
    <route edges="3789572 361409608#1 361409608#3 gneE33 -5976030 -227767347#1 -227767347#0 361585261#0 143866293#0 143866305#0 143866305#1 384312815 129211799#2 52375071 -52375073#1" id="13907386#0_to_-52375073#1"/>
    <route edges="3789572 361409608#1 361409608#3 gneE33 -5976030 -227767347#1 -227767347#0 361585261#0 143866293#0 143866305#0 143866311#0 23395388#0 129211838" id="13907386#0_to_129211838"/>
    <route edges="3789572 361409608#1 361409608#3 gneE33 -5976030 -227767347#1 -227767347#0 361585261#0 361585261#1 227767349#2 366222937#1 366222937#2 129211842#0 143278854#0 360313823#0 360313823#1 369652829#0" id="13907386#0_to_-360313824#0"/>
    <route edges="3789572 361409608#1 361409608#3 gneE33 -5976030 -227767347#1 -227767347#0 361585261#0 361585261#1 227767349#2 366222937#1 366222937#2 129211842#0 143278854#0 360313823#0 360313823#1 369652829#0" id="13907386#0_to_22962975#2"/>
    <route edges="3789572 361409608#1 361409608#3 gneE33 -5976030 -227767347#1 -227767347#0 361585261#0 361585261#1 227767349#2 366222937#1 366222937#2 129211842#0 143278854#0 360313823#0 360313823#1 6192247#0 16309916#0 16309916#1 369652831 22962979" id="13907386#0_to_14039867#0"/>
    <route edges="3789572 361409608#1 361409608#3 4408238#0 4408238#2 12854626#0 12854626#3 3791905#0 3791905#1" id="13907386#0_to_18928030#2"/>
    <route edges="3789572 361409608#1 361409608#3 gneE33 -5976030 -227767347#1 -227767347#0 361585261#0 143866293#0 143866305#0 143866305#1 384312815 129211799#2 372226866 372226870#0 372226870#2 510208230#1" id="13907386#0_to_317219087"/>
    <route edges="3789572 361409608#1 361409608#3 gneE33 -5976030 -227767347#1 -227767347#0 361585261#0 143866293#0 143866305#0 143866305#1 384312815 129211799#2 372226866 372226870#0 372226870#2 510208230#1" id="13907386#0_to_-25761629"/>
    <route edges="3789572 361409608#1 361409608#3 4408238#0 4408238#2 12854626#0 12854626#3 3791905#0 3791905#1" id="13907386#0_to_41851537#0"/>
    <route edges="3789572 361409608#1 361409608#3 gneE33 -5976030 -227767347#1 -227767347#0 361585261#0 143866293#0 143866305#0 143866305#1 384312815 129211799#2 372226866 372226870#0 372226870#2 510208230#1" id="13907386#0_to_32721859#0"/>
    <route edges="430591274#1 369359214 128570949#0 -227767347#1 -227767347#0 361585261#0 143866293#0 143866305#0 143866305#1 384312815 129211799#2 372226866 372226870#0 -38090686#4 -38090686#3 -38090686#2 -38090686#1 129211827#1 129211803#0 75450417" id="4401806_to_75450417"/>
    <route edges="430591274#1 369359214 128570949#0 -227767347#1 -227767347#0 361585261#0 361585261#1 227767349#2 366222937#1 366222937#2 129211842#0 143278854#0 360313823#0 360313823#1 369652829#0" id="4401806_to_-13866327#3"/>
    <route edges="430591274#1 369359214 128570949#0 -227767347#1 -227767347#0 361585261#0 143866293#0 143866305#0 143866311#0 23395388#0 23395388#2 23395388#3 25683461" id="4401806_to_25683461"/>
    <route edges="430591274#1 369359214 128570949#0 -227767347#1 -227767347#0 361585261#0 143866293#0 143866305#0 143866305#1 384312815 129211799#2 372226866 372226870#0 -38090686#4 -38090686#3 -38090686#2 -38090686#1 129211827#1 129211803#0 75450419#0" id="4401806_to_75450419#0"/>
    <route edges="430591274#1 369359214 128570949#0 -227767347#1 -227767347#0 361585261#0 143866293#0 143866305#0 143866311#0 23395388#0 129211838" id="4401806_to_129211838"/>
    <route edges="430591274#1 369359214 128570949#0 -227767347#1 -227767347#0 361585261#0 143866293#0 143866305#0 143866305#1 384312815 129211799#2 372226866 372226870#0 -38090686#4 -38090686#3 52375067#0 52375067#4" id="4401806_to_127219367"/>
    <route edges="430591274#1 369359214 128570949#0 -227767347#1 -227767347#0 361585261#0 361585261#1 227767349#2 366222937#1 366222937#2 129211842#0 143278854#0 360313823#0 360313823#1 369652829#0" id="4401806_to_-235444345"/>
    <route edges="430591274#1 369359214 128570949#0 -227767347#1 -227767347#0 361585261#0 361585261#1 227767349#2 366222937#1 366222937#2 129211842#0 143278854#0 360313823#0 360313823#1 369652829#0" id="4401806_to_8080823#4"/>
    <route edges="430591274#1 369359214 128570949#0 -227767347#1 -227767347#0 361585261#0 361585261#1 227767349#2 366222937#1 366222937#2 129211842#0 143278854#0 360313823#0 360313823#1 369652829#0" id="4401806_to_48460623#2"/>
    <route edges="430591274#1 369359214 128570949#0 -227767347#1 -227767347#0 361585261#0 361585261#1 227767349#2 366222937#1 366222937#2 129211842#0 143278854#0 360313823#0 360313823#1 369652829#0" id="4401806_to_-125886705#1"/>
    <route edges="430591274#1 369359214 128570949#0 -227767347#1 -227767347#0 361585261#0 143866293#0 143866305#0 143866311#0 23395388#0 23395388#2 23395388#3 23395388#4 23395388#5 115656105" id="4401806_to_115656105"/>
    <route edges="430591274#1 369359214 128570949#0 -227767347#1 -227767347#0 361585261#0 361585261#1 227767349#2 366222937#1 366222937#2 129211842#0 143278854#0 360313823#0 360313823#1 369652829#0" id="4401806_to_-228818593"/>
    <route edges="430591274#1 369359214 128570949#0 -227767347#1 -227767347#0 361585261#0 361585261#1 227767349#2 366222937#1 366222937#2 129211842#0 143278854#0 360313823#0 360313823#1 369652829#0" id="4401806_to_13866267"/>
    <route edges="430591274#1 369359214 128570949#0 -227767347#1 -227767347#0 361585261#0 361585261#1 227767349#2 366222937#1 366222937#2 129211842#0 143278854#0 360313823#0 360313823#1 369652829#0" id="4401806_to_129211786#0"/>
    <route edges="430591274#1 369359214 128570949#0 -227767347#1 -227767347#0 361585261#0 361585261#1 227767349#2 366222937#1 366222937#2 129211842#0 143278854#0 360313823#0 360313823#1 369652829#0" id="4401806_to_-317027065#3"/>
    <route edges="430591274#1 369359214 128570949#0 -227767347#1 -227767347#0 361585261#0 361585261#1 227767349#2 366222937#1 366222937#2 129211842#0 143278854#0 360313823#0 360313823#1 369652829#0" id="4401806_to_38192815"/>
    <route edges="430591274#1 369359214 128570949#0 -227767347#1 -227767347#0 361585261#0 361585261#1 227767349#2 366222937#1 366222937#2 129211842#0 143278854#0 360313823#0 360313823#1 369652829#0" id="4401806_to_317003251#0"/>
    <route edges="430591274#1 369359214 128570949#0 -227767347#1 -227767347#0 361585261#0 361585261#1 227767349#2 366222937#1 366222937#2 129211842#0 143278854#0 360313823#0 360313823#1 369652829#0" id="4401806_to_-228818577#0"/>
    <route edges="430591274#1 369359214 128570949#0 -227767347#1 -227767347#0 361585261#0 143866293#0 143866305#0 143866305#1 384312815 129211799#2 372226866 372226870#0 -38090686#4 -38090686#3 -38090686#2 -38090686#1 129211827#1 129211803#0 129211803#2 129211857#4 129211857#1 129211804#0" id="4401806_to_75450415#1"/>
    <route edges="430591274#1 369359214 128570949#0 -227767347#1 -227767347#0 361585261#0 361585261#1 227767349#2 366222937#1 366222937#2 129211842#0 143278854#0 360313823#0 360313823#1 369652829#0" id="4401806_to_4628792#3"/>
    <route edges="430591274#1 -129211817#2 -129211817#1 372460213#7 20848454#0 133909794#0" id="4401806_to_133909794#0"/>
    <route edges="430591274#1 369359214 128570949#0 -227767347#1 -227767347#0 361585261#0 361585261#1 227767349#2 366222937#1 366222937#2 129211842#0 143278854#0 360313823#0 360313823#1 369652829#0 23045780#0 23045780#2 23045781" id="4401806_to_23045781"/>
    <route edges="430591274#1 369359214 128570949#0 -129211789#5 -129211789#3 42471878#0 -42471880" id="4401806_to_-42471880"/>
    <route edges="430591274#1 369359214 128570949#0 -227767347#1 -227767347#0 361585261#0 361585261#1 227767349#2 366222937#1 366222937#2 129211842#0 143278854#0 360313823#0 360313823#1 369652829#0" id="4401806_to_41502636#0"/>
    <route edges="430591274#1 369359214 128570949#0 -227767347#1 -227767347#0 361585261#0 361585261#1 227767349#2 366222937#1 366222937#2 129211842#0 143278854#0 360313823#0 360313823#1 369652829#0" id="4401806_to_-129211786#2"/>
    <route edges="430591274#1 369359214 128570949#0 -227767347#1 -227767347#0 361585261#0 361585261#1 227767349#2 366222937#1 366222937#2 129211842#0 143278854#0 360313823#0 360313823#1 369652829#0" id="4401806_to_48455140#0"/>
    <route edges="3789572 361409608#1 361409608#3 4408238#0" id="4401806_to_4408238#0"/>
    <route edges="430591274#1 369359214 128570949#0 -227767347#1 -227767347#0 361585261#0 361585261#1 227767349#2 366222937#1 366222937#2 129211842#0 143278854#0 360313823#0 360313823#1 369652829#0" id="4401806_to_14039614"/>
    <route edges="430591274#1 369359214 128570949#0 -227767347#1 -227767347#0 361585261#0 143866293#0 143866305#0 143866305#1 384312815 129211799#2 372226866 372226870#0 -38090686#4 -38090686#3 -38090686#2 -38090686#1 129211827#1 129211803#0 129211803#2 129211857#4 129211857#1 129211804#0" id="4401806_to_-495995815"/>
    <route edges="430591274#1 369359214 128570949#0 -227767347#1 -227767347#0 361585261#0 361585261#1 227767349#2 366222937#1 366222937#2 129211842#0 143278854#0 360313823#0 360313823#1 369652829#0" id="4401806_to_-129211835#2"/>
    <route edges="430591274#1 369359214 128570949#0 -227767347#1 -227767347#0 361585261#0 361585261#1 227767349#2 366222937#1 366222937#2 129211842#0 143278854#0 360313823#0 360313823#1 369652829#0" id="4401806_to_25638749#3"/>
    <route edges="430591274#1 369359214 128570949#0 -227767347#1 -227767347#0 361585261#0 361585261#1 227767349#2 366222937#1 366222937#2 129211842#0 143278854#0 360313823#0 360313823#1 369652829#0 23045780#0 23045780#2 23045782" id="4401806_to_23045782"/>
    <route edges="430591274#1 369359214 128570949#0 -227767347#1 -227767347#0 361585261#0 361585261#1 227767349#2 366222937#1 366222937#2 129211842#0 143278854#0 360313823#0 360313823#1 369652829#0" id="4401806_to_228818597#1"/>
    <route edges="430591274#1 369359214 128570949#0 -227767347#1 -227767347#0 361585261#0 361585261#1 227767349#2 366222937#1 366222937#2 129211842#0 143278854#0 360313823#0 360313823#1 369652829#0" id="4401806_to_13866340#1"/>
    <route edges="430591274#1 369359214 128570949#0 -227767347#1 -227767347#0 361585261#0 361585261#1 227767349#2 366222937#1 366222937#2 129211842#0 143278854#0 360313823#0 360313823#1 369652829#0" id="4401806_to_228818596#2"/>
    <route edges="38090685#0 127220738" id="4401806_to_127220738"/>
    <route edges="430591274#1 369359214 128570949#0 -227767347#1 -227767347#0 361585261#0 361585261#1 227767349#2 366222937#1 366222937#2 129211842#0 143278854#0 360313823#0 360313823#1 369652829#0" id="4401806_to_-129211823#2"/>
    <route edges="430591274#1 369359214 128570949#0 -227767347#1 -227767347#0 361585261#0 361585261#1 227767349#2 366222937#1 366222937#2 129211842#0 143278854#0 360313823#0 360313823#1 369652829#0" id="4401806_to_-125880830#4"/>
    <route edges="430591274#1 369359214 128570949#0 -227767347#1 -227767347#0 361585261#0 361585261#1 227767349#2 366222937#1 366222937#2 129211842#0 143278854#0 360313823#0 360313823#1 369652829#0" id="4401806_to_-129211821#2"/>
    <route edges="430591274#1 369359214 128570949#0 -227767347#1 -227767347#0 361585261#0 361585261#1 227767349#2 366222937#1 366222937#2 129211842#0 143278854#0 360313823#0 360313823#1 369652829#0" id="4401806_to_129211835#0"/>
    <route edges="430591274#1 369359214 128570949#0 -227767347#1 -227767347#0 361585261#0 361585261#1 227767349#2 366222937#1 366222937#2 129211842#0 143278854#0 360313823#0 360313823#1 369652829#0" id="4401806_to_228818591#0"/>
    <route edges="430591274#1 369359214 128570949#0 -227767347#1 -227767347#0 361585261#0 361585261#1 227767349#2 366222937#1 366222937#2 129211842#0 143278854#0 360313823#0 360313823#1 369652829#0" id="4401806_to_-48460623#0"/>
    <route edges="430591274#1 369359214 128570949#0 -227767347#1 -227767347#0 361585261#0 143866293#0 143866305#0 143866311#0 23395388#0 23395388#2 23395388#3 23395388#4 23395388#5 23395388#6 48483332#1" id="4401806_to_48483332#1"/>
    <route edges="430591274#1 369359214 128570949#0 -227767347#1 -227767347#0 361585261#0 361585261#1 227767349#2 366222937#1 366222937#2 129211842#0 143278854#0 360313823#0 360313823#1 369652829#0" id="4401806_to_228818577#1"/>
    <route edges="430591274#1 369359214 128570949#0 -227767347#1 -227767347#0 361585261#0 361585261#1 227767349#2 366222937#1 366222937#2 129211842#0 143278854#0 360313823#0 360313823#1 369652829#0" id="4401806_to_48460623#1"/>
    <route edges="430591274#1 369359214 128570949#0 -227767347#1 -227767347#0 361585261#0 361585261#1 227767349#2 366222937#1 366222937#2 129211842#0 143278854#0 360313823#0 360313823#1 369652829#0" id="4401806_to_317027065#2"/>
    <route edges="430591274#1 369359214 128570949#0 -227767347#1 -227767347#0 361585261#0 361585261#1 227767349#2 366222937#1 366222937#2 129211842#0 143278854#0 360313823#0 360313823#1 369652829#0" id="4401806_to_13866327#1"/>
    <route edges="430591274#1 369359214 128570949#0 -227767347#1 -227767347#0 361585261#0 143866293#0 143866305#0 143866305#1 384312815 129211799#2 372226866 372226870#0 -38090686#4 -38090686#3 -38090686#2 -38090686#1 129211827#1 129211803#0 129211803#2 129211857#4 129211857#1 129211804#0 75450412" id="4401806_to_75450412"/>
    <route edges="430591274#1 369359214 128570949#0 -227767347#1 -227767347#0 361585261#0 143866293#0 143866305#0 143866305#1 384312815 129211799#2 52375071 369988984#2 -52375060#2 -52375062" id="4401806_to_-52375062"/>
    <route edges="430591274#1 369359214 128570949#0 -227767347#1 -227767347#0 361585261#0 361585261#1 227767349#2 366222937#1 366222937#2 129211842#0 143278854#0 360313823#0 360313823#1 6192247#0 16309916#0 16309916#1 369652831 22962979" id="4401806_to_-532427444#3"/>
    <route edges="430591274#1 -129211817#2 129211818#2 -16551144 -369359214 -430591274#4" id="4401806_to_52375077"/>
    <route edges="430591274#1 369359214 128570949#0 -227767347#1 -227767347#0 361585261#0 361585261#1 227767349#2 366222937#1 366222937#2 129211842#0 143278854#0 360313823#0 360313823#1 369652829#0" id="4401806_to_-25638749#2"/>
    <route edges="430591274#1 369359214 128570949#0 -227767347#1 -227767347#0 361585261#0 143866293#0 143866305#0 143866305#1 384312815 129211799#2 372226866 372226870#0 -38090686#4 -38090686#3 52375067#0 52375067#4" id="4401806_to_127219366"/>
    <route edges="430591274#1 369359214 128570949#0 -227767347#1 -227767347#0 361585261#0 361585261#1 227767349#2 366222937#1 366222937#2 129211842#0 143278854#0 360313823#0 360313823#1 369652829#0" id="4401806_to_-13866265"/>
    <route edges="430591274#1 369359214 128570949#0 -227767347#1 -227767347#0 361585261#0 361585261#1 227767349#2 366222937#1 366222937#2 129211842#0 143278854#0 360313823#0 360313823#1 369652829#0" id="4401806_to_52241898#1"/>
    <route edges="38090685#0 38090685#1" id="4401806_to_38090685#1"/>
    <route edges="430591274#1 369359214 128570949#0 -227767347#1 -227767347#0 361585261#0 361585261#1 227767349#2 366222937#1 366222937#2 129211842#0 143278854#0 360313823#0 360313823#1 369652829#0" id="4401806_to_-13866329#1"/>
    <route edges="430591274#1 369359214 128570949#0 -227767347#1 -227767347#0 361585261#0 361585261#1 227767349#2 366222937#1 366222937#2 129211842#0 143278854#0 360313823#0 360313823#1 369652829#0" id="4401806_to_43321720#2"/>
    <route edges="430591274#1 369359214 128570949#0 -227767347#1 -227767347#0 361585261#0 361585261#1 227767349#2 366222937#1 366222937#2 129211842#0 143278854#0 360313823#0 360313823#1 369652829#0" id="4401806_to_-228373557#1"/>
    <route edges="430591274#1 369359214 128570949#0 -227767347#1 -227767347#0 361585261#0 143866293#0 143866305#0 143866311#0 23395388#0 23395388#2 23395388#3 23395388#4 23395388#5 23395388#6 510208228" id="4401806_to_510208228"/>
    <route edges="430591274#1 369359214 128570949#0 -227767347#1 -227767347#0 361585261#0 361585261#1 227767349#2 366222937#1 366222937#2 129211842#0 143278854#0 360313823#0 360313823#1 369652829#0" id="4401806_to_52241894#0"/>
    <route edges="430591274#1 369359214 128570949#0 -227767347#1 -227767347#0 361585261#0 361585261#1 227767349#2 366222937#1 366222937#2 129211842#0 143278854#0 360313823#0 23050596 23050598" id="4401806_to_23050598"/>
    <route edges="430591274#1 369359214 128570949#0 -227767347#1 -227767347#0 361585261#0 361585261#1 227767349#2 366222937#1 366222937#2 129211842#0 143278854#0 360313823#0 360313823#1 369652829#0" id="4401806_to_13866330#0"/>
    <route edges="430591274#1 369359214 128570949#0 -227767347#1 -227767347#0 361585261#0 143866293#0 143866305#0 143866311#0 23395388#0 23395388#2 23395388#3 23395388#4 23395388#5 23395388#6 115656107" id="4401806_to_115656107"/>
    <route edges="430591274#1 369359214 128570949#0 -227767347#1 -227767347#0 361585261#0 361585261#1 227767349#2 366222937#1 366222937#2 129211842#0 143278854#0 360313823#0 360313823#1 369652829#0" id="4401806_to_-13894939#2"/>
    <route edges="430591274#1 369359214 128570949#0 -227767347#1 -227767347#0 361585261#0 361585261#1 227767349#2 366222937#1 366222937#2 129211842#0 143278854#0 360313823#0 360313823#1 369652829#0" id="4401806_to_471170408"/>
    <route edges="430591274#1 369359214 128570949#0 -227767347#1 -227767347#0 361585261#0 361585261#1 227767349#2 366222937#1 366222937#2 129211842#0 143278854#0 360313823#0 360313823#1 369652829#0" id="4401806_to_-52241898#0"/>
    <route edges="430591274#1 369359214 128570949#0 -227767347#1 -227767347#0 361585261#0 361585261#1 227767349#2 366222937#1 366222937#2 129211842#0 143278854#0 360313823#0 360313823#1 6192247#0 16309916#0 16309916#1 369652831 22962979" id="4401806_to_24687121#2"/>
    <route edges="430591274#1 369359214 128570949#0 -227767347#1 -227767347#0 361585261#0 361585261#1 227767349#2 366222937#1 366222937#2 129211842#0 143278854#0 360313823#0 360313823#1 369652829#0" id="4401806_to_317544589#2"/>
    <route edges="430591274#1 369359214 128570949#0 -227767347#1 -227767347#0 361585261#0 143866293#0 143866305#0 143866305#1 384312815 129211799#2 52375071 -52375073#1" id="4401806_to_-52375073#1"/>
    <route edges="430591274#1 369359214 128570949#0 5976030 gneE22" id="4401806_to_gneE22"/>
    <route edges="3789572 361409608#1 361409608#3 gneE33" id="4401806_to_gneE33"/>
    <route edges="430591274#1 369359214 128570949#0 -227767347#1 -227767347#0 361585261#0 361585261#1 227767349#2 366222937#1 366222937#2 129211842#0 143278854#0 360313823#0 360313823#1 6192247#0 16309916#0 16309916#1 369652831 22962979" id="4401806_to_38167515"/>
    <route edges="3789572 361409608#1 8075819 41772644#0" id="4401806_to_41772644#0"/>
    <route edges="430591274#1 369359214 128570949#0 -227767347#1 -227767347#0 361585261#0 361585261#1 227767349#2 366222937#1 366222937#2 129211842#0 143278854#0 360313823#0 360313823#1 6192247#0 16309916#0 16309916#1 369652831 22962979" id="4401806_to_43321719#0"/>
    <route edges="430591274#1 369359214 128570949#0 -227767347#1 -227767347#0 361585261#0 361585261#1 227767349#2 366222937#1 366222937#2 129211842#0 143278854#0 360313823#0 360313823#1 369652829#0" id="4401806_to_129211835#4"/>
    <route edges="430591274#1 369359214 128570949#0 -227767347#1 -227767347#0 361585261#0 361585261#1 227767349#2 366222937#1 366222937#2 129211842#0 143278854#0 360313823#0 360313823#1 369652829#0" id="4401806_to_125880830#7"/>
    <route edges="430591274#1 369359214 128570949#0 -227767347#1 -227767347#0 361585261#0 361585261#1 227767349#2 366222937#1 366222937#2 129211842#0 143278854#0 360313823#0 23050596 23050597" id="4401806_to_23050597"/>
    <route edges="430591274#1 369359214 128570949#0 -227767347#1 -227767347#0 361585261#0 361585261#1 227767349#2 366222937#1 366222937#2 129211842#0 143278854#0 360313823#0 360313823#1 369652829#0" id="4401806_to_8384431#0"/>
    <route edges="430591274#1 369359214 128570949#0 -227767347#1 -227767347#0 361585261#0 361585261#1 227767349#2 366222937#1 366222937#2 129211842#0 143278854#0 360313823#0 360313823#1 369652829#0 23045780#0 350497554" id="4401806_to_350497554"/>
    <route edges="430591274#1 369359214 128570949#0 -227767347#1 -227767347#0 361585261#0 361585261#1 227767349#2 366222937#1 366222937#2 129211842#0 143278854#0 360313823#0 360313823#1 369652829#0" id="4401806_to_-22962975#3"/>
    <route edges="430591274#1 369359214 128570949#0 -227767347#1 -227767347#0 361585261#0 143866293#0 143866305#0 143866311#0 23395388#0 129211851#0 -129211792" id="4401806_to_-129211792"/>
    <route edges="430591274#1 369359214 128570949#0 -227767347#1 -227767347#0 361585261#0 361585261#1 227767349#2 366222937#1 366222937#2 129211842#0 143278854#0 360313823#0 360313823#1 369652829#0" id="4401806_to_-13866343#0"/>
    <route edges="430591274#1 369359214 128570949#0 -227767347#1 -227767347#0 361585261#0 361585261#1 227767349#2 366222937#1 366222937#2 129211842#0 143278854#0 360313823#0 360313823#1 369652829#0" id="4401806_to_-237581109#1"/>
    <route edges="430591274#1 369359214 128570949#0 -227767347#1 -227767347#0 361585261#0 361585261#1 227767349#2 366222937#1 366222937#2 129211842#0 143278854#0 360313823#0 360313823#1 369652829#0" id="4401806_to_302527226#0"/>
    <route edges="430591274#1 369359214 128570949#0 -227767347#1 -227767347#0 361585261#0 361585261#1 227767349#2 366222937#1 366222937#2 129211842#0 143278854#0 360313823#0 360313823#1 369652829#0" id="4401806_to_317027065#4"/>
    <route edges="430591274#1 369359214 128570949#0 -227767347#1 -227767347#0 361585261#0 361585261#1 227767349#2 366222937#1 366222937#2 129211842#0 143278854#0 360313823#0 360313823#1 369652829#0" id="4401806_to_-77616869#2"/>
    <route edges="430591274#1 369359214 128570949#0 -227767347#1 -227767347#0 361585261#0 143866293#0 143866305#0 143866311#0 23395388#0 23395388#2 -20848457" id="4401806_to_-20848457"/>
    <route edges="430591274#1 369359214 128570949#0 -227767347#1 -227767347#0 361585261#0 361585261#1 227767349#2 366222937#1 366222937#2 129211842#0 143278854#0 360313823#0 360313823#1 369652829#0" id="4401806_to_4629169#0"/>
    <route edges="430591274#1 369359214 128570949#0 -227767347#1 -227767347#0 361585261#0 143866293#0 143866305#0 143866305#1 384312815 129211799#2 372226866 372226870#0 -38090686#4 -38090686#3 -38090686#2" id="4401806_to_-52375068#1"/>
    <route edges="430591274#1 369359214 128570949#0 -227767347#1 -227767347#0 361585261#0 361585261#1 227767349#2 366222937#1 366222937#2 129211842#0 143278854#0 360313823#0 360313823#1 6192247#0 16309916#0 16309916#1 369652831 22962979" id="4401806_to_4919538"/>
    <route edges="3789572 361409608#1 361409608#3 3789252#1" id="4401806_to_3789252#1"/>
    <route edges="3789572 361409608#1 8075819 41772639#0" id="4401806_to_41772639#0"/>
    <route edges="430591274#1 369359214 128570949#0 -227767347#1 -227767347#0 361585261#0 361585261#1 227767349#2 366222937#1 366222937#2 129211842#0 143278854#0 360313823#0 360313823#1 369652829#0" id="4401806_to_32631610#3"/>
    <route edges="430591274#1 369359214 128570949#0 -227767347#1 -227767347#0 361585261#0 361585261#1 227767349#2 366222937#1 366222937#2 129211842#0 143278854#0 360313823#0 360313823#1 369652829#0" id="4401806_to_25638778"/>
    <route edges="430591274#1 369359214 128570949#0 -227767347#1 -227767347#0 361585261#0 361585261#1 227767349#2 366222937#1 366222937#2 129211842#0 143278854#0 360313823#0 360313823#1 369652829#0" id="4401806_to_-14039611#0"/>
    <route edges="430591274#1 369359214 128570949#0 -227767347#1 -227767347#0 361585261#0 361585261#1 227767349#2 366222937#1 366222937#2 129211842#0 143278854#0 360313823#0 360313823#1 369652829#0" id="4401806_to_-48460623#1"/>
    <route edges="430591274#1 369359214 128570949#0 -227767347#1 -227767347#0 361585261#0 361585261#1 227767349#2 366222937#1 366222937#2 129211842#0 143278854#0 360313823#0 360313823#1 369652829#0" id="4401806_to_-25638749#0"/>
    <route edges="430591274#1 369359214 128570949#0 -227767347#1 -227767347#0 361585261#0 361585261#1 227767349#2 366222937#1 366222937#2 129211842#0 143278854#0 360313823#0 360313823#1 369652829#0" id="4401806_to_-129211797#2"/>
    <route edges="430591274#1 369359214 128570949#0 -227767347#1 -227767347#0 361585261#0 361585261#1 227767349#2 366222937#1 366222937#2 129211842#0 143278854#0 360313823#0 360313823#1 369652829#0" id="4401806_to_-13866340#0"/>
    <route edges="430591274#1 369359214 128570949#0 -227767347#1 -227767347#0 361585261#0 361585261#1 227767349#2 4290616#1" id="4401806_to_4290616#1"/>
    <route edges="430591274#1 369359214 128570949#0 -227767347#1 -227767347#0 361585261#0 361585261#1 227767349#2 366222937#1 366222937#2 129211842#0 143278854#0 360313823#0 360313823#1 369652829#0" id="4401806_to_151482075#0"/>
    <route edges="430591274#1 369359214 128570949#0 -227767347#1 -227767347#0 361585261#0 361585261#1 227767349#2 366222937#1 366222937#2 129211842#0 143278854#0 360313823#0 360313823#1 6192247#0 16309916#0 16309916#1 369652831 22962979" id="4401806_to_-4078078#1"/>
    <route edges="56681847#1" id="4401806_to_56681847#1"/>