<additional xmlns:xsi="http://www.w3.org/2001/XMLSchema-instance" xsi:noNamespaceSchemaLocation="http://sumo.dlr.de/xsd/additional_file.xsd">
    <e1Detector file="e1output.xml" freq="120" friendlyPos="x" id="e1det_-129211789#0_0" lane="-129211789#0_0" pos="13.37"/>
    <e1Detector file="e1output.xml" freq="120" friendlyPos="x" id="e1det_127546529#0_0" lane="127546529#0_0" pos="54.72"/>
    <e1Detector file="e1output.xml" freq="120" friendlyPos="x" id="e1det_127546529#0_1" lane="127546529#0_1" pos="54.72"/>
    <e1Detector file="e1output.xml" freq="120" friendlyPos="x" id="e1det_127546529#0_2" lane="127546529#0_2" pos="54.72"/>
    <e1Detector file="e1output.xml" freq="120" friendlyPos="x" id="e1det_-129211818#1_0" lane="-129211818#1_0" pos="86.12"/>
    <e1Detector file="e1output.xml" freq="120" friendlyPos="x" id="e1det_-372460213#6_0" lane="-372460213#6_0" pos="43.93"/>
    <e1Detector file="e1output.xml" freq="120" friendlyPos="x" id="e1det_-372460213#6_1" lane="-372460213#6_1" pos="43.93"/>
    <e1Detector file="e1output.xml" freq="120" friendlyPos="x" id="e1det_372460213#0_0" lane="372460213#0_0" pos="55.71"/>
    <e1Detector file="e1output.xml" freq="120" friendlyPos="x" id="e1det_372460213#0_1" lane="372460213#0_1" pos="55.71"/>
    <e1Detector file="e1output.xml" freq="120" friendlyPos="x" id="e1det_-369652829#3_0" lane="-369652829#3_0" pos="74.41"/>
    <e1Detector file="e1output.xml" freq="120" friendlyPos="x" id="e1det_-6192247#0_0" lane="-6192247#0_0" pos="93.11"/>
    <e1Detector file="e1output.xml" freq="120" friendlyPos="x" id="e1det_360313823#1_0" lane="360313823#1_0" pos="37.7"/>
    <e1Detector file="e1output.xml" freq="120" friendlyPos="x" id="e1det_-372226859#1_0" lane="-372226859#1_0" pos="95.89"/>
    <e1Detector file="e1output.xml" freq="120" friendlyPos="x" id="e1det_-5976028#1_0" lane="-5976028#1_0" pos="81.5"/>
    <e1Detector file="e1output.xml" freq="120" friendlyPos="x" id="e1det_317003246_0" lane="317003246_0" pos="25.33"/>
    <e1Detector file="e1output.xml" freq="120" friendlyPos="x" id="e1det_317003246_1" lane="317003246_1" pos="25.33"/>
    <e1Detector file="e1output.xml" freq="120" friendlyPos="x" id="e1det_-372460213#1_0" lane="-372460213#1_0" pos="55.82"/>
    <e1Detector file="e1output.xml" freq="120" friendlyPos="x" id="e1det_-372460213#1_1" lane="-372460213#1_1" pos="55.82"/>
    <e1Detector file="e1output.xml" freq="120" friendlyPos="x" id="e1det_372460211#3_0" lane="372460211#3_0" pos="47.91"/>
    <e1Detector file="e1output.xml" freq="120" friendlyPos="x" id="e1det_56681847#1_0" lane="56681847#1_0" pos="148.49"/>
    <e1Detector file="e1output.xml" freq="120" friendlyPos="x" id="e1det_56681847#1_1" lane="56681847#1_1" pos="148.49"/>
    <e1Detector file="e1output.xml" freq="120" friendlyPos="x" id="e1det_-401912432#4_0" lane="-401912432#4_0" pos="95.08"/>
    <e1Detector file="e1output.xml" freq="120" friendlyPos="x" id="e1det_-401912432#4_1" lane="-401912432#4_1" pos="95.08"/>
    <e1Detector file="e1output.xml" freq="120" friendlyPos="x" id="e1det_3789252#3_0" lane="3789252#3_0" pos="52.03"/>
    <e1Detector file="e1output.xml" freq="120" friendlyPos="x" id="e1det_3789252#3_1" lane="3789252#3_1" pos="52.03"/>
    <e1Detector file="e1output.xml" freq="120" friendlyPos="x" id="e1det_-43538577#1_0" lane="-43538577#1_0" pos="56.45"/>
    <e1Detector file="e1output.xml" freq="120" friendlyPos="x" id="e1det_16247623_0" lane="16247623_0" pos="13.37"/>
    <e1Detector file="e1output.xml" freq="120" friendlyPos="x" id="e1det_37865098#2_0" lane="37865098#2_0" pos="75.09"/>
    <e1Detector file="e1output.xml" freq="120" friendlyPos="x" id="e1det_37865098#2_1" lane="37865098#2_1" pos="75.09"/>
    <e1Detector file="e1output.xml" freq="120" friendlyPos="x" id="e1det_-5976028#2_0" lane="-5976028#2_0" pos="52.37"/>
    <e1Detector file="e1output.xml" freq="120" friendlyPos="x" id="e1det_5976028#0_0" lane="5976028#0_0" pos="82.73"/>
    <e1Detector file="e1output.xml" freq="120" friendlyPos="x" id="e1det_-5976030_0" lane="-5976030_0" pos="113.44"/>
    <e1Detector file="e1output.xml" freq="120" friendlyPos="x" id="e1det_-5976030_1" lane="-5976030_1" pos="113.44"/>
    <e1Detector file="e1output.xml" freq="120" friendlyPos="x" id="e1det_128570949#0_0" lane="128570949#0_0" pos="24.94"/>
    <e1Detector file="e1output.xml" freq="120" friendlyPos="x" id="e1det_129211789#4_0" lane="129211789#4_0" pos="12.39"/>
    <e1Detector file="e1output.xml" freq="120" friendlyPos="x" id="e1det_227767347#1_0" lane="227767347#1_0" pos="11.8"/>
    <e1Detector file="e1output.xml" freq="120" friendlyPos="x" id="e1det_227767347#1_1" lane="227767347#1_1" pos="11.8"/>
    <e1Detector file="e1output.xml" freq="120" friendlyPos="x" id="e1det_10564223#1_0" lane="10564223#1_0" pos="5.22"/>
    <e1Detector file="e1output.xml" freq="120" friendlyPos="x" id="e1det_10564223#1_1" lane="10564223#1_1" pos="5.22"/>
    <e1Detector file="e1output.xml" freq="120" friendlyPos="x" id="e1det_10564223#1_2" lane="10564223#1_2" pos="5.22"/>
    <e1Detector file="e1output.xml" freq="120" friendlyPos="x" id="e1det_143866298#1_0" lane="143866298#1_0" pos="8.02"/>
    <e1Detector file="e1output.xml" freq="120" friendlyPos="x" id="e1det_143866298#1_1" lane="143866298#1_1" pos="8.02"/>
    <e1Detector file="e1output.xml" freq="120" friendlyPos="x" id="e1det_227767349#2_0" lane="227767349#2_0" pos="171.18"/>
    <e1Detector file="e1output.xml" freq="120" friendlyPos="x" id="e1det_227767349#2_1" lane="227767349#2_1" pos="171.18"/>
    <e1Detector file="e1output.xml" freq="120" friendlyPos="x" id="e1det_227767349#2_2" lane="227767349#2_2" pos="171.18"/>
    <e1Detector file="e1output.xml" freq="120" friendlyPos="x" id="e1det_125863788_0" lane="125863788_0" pos="76.79"/>
    <e1Detector file="e1output.xml" freq="120" friendlyPos="x" id="e1det_125863788_1" lane="125863788_1" pos="76.79"/>
    <e1Detector file="e1output.xml" freq="120" friendlyPos="x" id="e1det_127546529#5_0" lane="127546529#5_0" pos="67.32"/>
    <e1Detector file="e1output.xml" freq="120" friendlyPos="x" id="e1det_127546529#5_1" lane="127546529#5_1" pos="67.32"/>
    <e1Detector file="e1output.xml" freq="120" friendlyPos="x" id="e1det_127546529#5_2" lane="127546529#5_2" pos="67.32"/>
    <e1Detector file="e1output.xml" freq="120" friendlyPos="x" id="e1det_13907388_0" lane="13907388_0" pos="125.65"/>
    <e1Detector file="e1output.xml" freq="120" friendlyPos="x" id="e1det_13907388_1" lane="13907388_1" pos="125.65"/>
    <e1Detector file="e1output.xml" freq="120" friendlyPos="x" id="e1det_13907388_2" lane="13907388_2" pos="125.65"/>
    <e1Detector file="e1output.xml" freq="120" friendlyPos="x" id="e1det_13907388_3" lane="13907388_3" pos="125.65"/>
    <e1Detector file="e1output.xml" freq="120" friendlyPos="x" id="e1det_12854626#3_0" lane="12854626#3_0" pos="120.7"/>
    <e1Detector file="e1output.xml" freq="120" friendlyPos="x" id="e1det_12854626#3_1" lane="12854626#3_1" pos="120.7"/>
    <e1Detector file="e1output.xml" freq="120" friendlyPos="x" id="e1det_372245388#1_0" lane="372245388#1_0" pos="31.590000000000003"/>
    <e1Detector file="e1output.xml" freq="120" friendlyPos="x" id="e1det_372245388#1_1" lane="372245388#1_1" pos="31.590000000000003"/>
    <e1Detector file="e1output.xml" freq="120" friendlyPos="x" id="e1det_372245388#1_2" lane="372245388#1_2" pos="31.590000000000003"/>
    <e1Detector file="e1output.xml" freq="120" friendlyPos="x" id="e1det_143866293#0_0" lane="143866293#0_0" pos="9.71"/>
    <e1Detector file="e1output.xml" freq="120" friendlyPos="x" id="e1det_143866293#0_1" lane="143866293#0_1" pos="9.71"/>
    <e1Detector file="e1output.xml" freq="120" friendlyPos="x" id="e1det_20848454#2_0" lane="20848454#2_0" pos="34.24"/>
    <e1Detector file="e1output.xml" freq="120" friendlyPos="x" id="e1det_20848454#2_1" lane="20848454#2_1" pos="34.24"/>
    <e1Detector file="e1output.xml" freq="120" friendlyPos="x" id="e1det_361585261#1_0" lane="361585261#1_0" pos="11.32"/>
    <e1Detector file="e1output.xml" freq="120" friendlyPos="x" id="e1det_361585261#1_1" lane="361585261#1_1" pos="11.32"/>
    <e1Detector file="e1output.xml" freq="120" friendlyPos="x" id="e1det_375778088#0_0" lane="375778088#0_0" pos="0"/>
    <e1Detector file="e1output.xml" freq="120" friendlyPos="x" id="e1det_375778088#0_1" lane="375778088#0_1" pos="0"/>
    <e1Detector file="e1output.xml" freq="120" friendlyPos="x" id="e1det_375778088#0_2" lane="375778088#0_2" pos="0"/>
    <e1Detector file="e1output.xml" freq="120" friendlyPos="x" id="e1det_143866305#1_0" lane="143866305#1_0" pos="29.52"/>
    <e1Detector file="e1output.xml" freq="120" friendlyPos="x" id="e1det_143866305#1_1" lane="143866305#1_1" pos="29.52"/>
    <e1Detector file="e1output.xml" freq="120" friendlyPos="x" id="e1det_372460213#7_0" lane="372460213#7_0" pos="49.53"/>
    <e1Detector file="e1output.xml" freq="120" friendlyPos="x" id="e1det_372460213#7_1" lane="372460213#7_1" pos="49.53"/>
    <e1Detector file="e1output.xml" freq="120" friendlyPos="x" id="e1det_48483331#0_0" lane="48483331#0_0" pos="67.49"/>
    <e1Detector file="e1output.xml" freq="120" friendlyPos="x" id="e1det_143866308#1_0" lane="143866308#1_0" pos="3.67"/>
    <e1Detector file="e1output.xml" freq="120" friendlyPos="x" id="e1det_143866308#1_1" lane="143866308#1_1" pos="3.67"/>
    <e1Detector file="e1output.xml" freq="120" friendlyPos="x" id="e1det_68748484#0_0" lane="68748484#0_0" pos="8.97"/>
    <e1Detector file="e1output.xml" freq="120" friendlyPos="x" id="e1det_68748484#0_1" lane="68748484#0_1" pos="8.97"/>
    <e1Detector file="e1output.xml" freq="120" friendlyPos="x" id="e1det_143866314#1_0" lane="143866314#1_0" pos="31.57"/>
    <e1Detector file="e1output.xml" freq="120" friendlyPos="x" id="e1det_143866314#1_1" lane="143866314#1_1" pos="31.57"/>
    <e1Detector file="e1output.xml" freq="120" friendlyPos="x" id="e1det_369977730#2_0" lane="369977730#2_0" pos="43.67"/>
    <e1Detector file="e1output.xml" freq="120" friendlyPos="x" id="e1det_369977730#2_1" lane="369977730#2_1" pos="43.67"/>
    <e1Detector file="e1output.xml" freq="120" friendlyPos="x" id="e1det_6192171#0_0" lane="6192171#0_0" pos="122.91"/>
    <e1Detector file="e1output.xml" freq="120" friendlyPos="x" id="e1det_6192171#0_1" lane="6192171#0_1" pos="122.91"/>
    <e1Detector file="e1output.xml" freq="120" friendlyPos="x" id="e1det_143866317#0_0" lane="143866317#0_0" pos="76.92"/>
    <e1Detector file="e1output.xml" freq="120" friendlyPos="x" id="e1det_143866317#0_1" lane="143866317#0_1" pos="76.92"/>
    <e1Detector file="e1output.xml" freq="120" friendlyPos="x" id="e1det_376466424#0_0" lane="376466424#0_0" pos="129.24"/>
    <e1Detector file="e1output.xml" freq="120" friendlyPos="x" id="e1det_143866321_0" lane="143866321_0" pos="53.14"/>
    <e1Detector file="e1output.xml" freq="120" friendlyPos="x" id="e1det_143866321_1" lane="143866321_1" pos="53.14"/>
    <e1Detector file="e1output.xml" freq="120" friendlyPos="x" id="e1det_14401069#9_0" lane="14401069#9_0" pos="79.58"/>
    <e1Detector file="e1output.xml" freq="120" friendlyPos="x" id="e1det_23086918#1_0" lane="23086918#1_0" pos="62.03"/>
    <e1Detector file="e1output.xml" freq="120" friendlyPos="x" id="e1det_404268319_0" lane="404268319_0" pos="54.43"/>
    <e1Detector file="e1output.xml" freq="120" friendlyPos="x" id="e1det_404268319_1" lane="404268319_1" pos="54.43"/>
    <e1Detector file="e1output.xml" freq="120" friendlyPos="x" id="e1det_18927706#3_0" lane="18927706#3_0" pos="130.74"/>
    <e1Detector file="e1output.xml" freq="120" friendlyPos="x" id="e1det_372245388#0_0" lane="372245388#0_0" pos="73.1"/>
    <e1Detector file="e1output.xml" freq="120" friendlyPos="x" id="e1det_372245388#0_1" lane="372245388#0_1" pos="73.1"/>
    <e1Detector file="e1output.xml" freq="120" friendlyPos="x" id="e1det_25631272#1_0" lane="25631272#1_0" pos="21.93"/>
    <e1Detector file="e1output.xml" freq="120" friendlyPos="x" id="e1det_25631272#1_1" lane="25631272#1_1" pos="21.93"/>
    <e1Detector file="e1output.xml" freq="120" friendlyPos="x" id="e1det_37865098#0_0" lane="37865098#0_0" pos="26.1"/>
    <e1Detector file="e1output.xml" freq="120" friendlyPos="x" id="e1det_37865098#0_1" lane="37865098#0_1" pos="26.1"/>
    <e1Detector file="e1output.xml" freq="120" friendlyPos="x" id="e1det_42638928_0" lane="42638928_0" pos="46.2"/>
    <e1Detector file="e1output.xml" freq="120" friendlyPos="x" id="e1det_4396059#1_0" lane="4396059#1_0" pos="56.99"/>
    <e1Detector file="e1output.xml" freq="120" friendlyPos="x" id="e1det_556390402#2_0" lane="556390402#2_0" pos="164.56"/>
    <e1Detector file="e1output.xml" freq="120" friendlyPos="x" id="e1det_556390402#2_1" lane="556390402#2_1" pos="164.56"/>
    <e1Detector file="e1output.xml" freq="120" friendlyPos="x" id="e1det_gneE29_0" lane="gneE29_0" pos="63.620000000000005"/>
    <e1Detector file="e1output.xml" freq="120" friendlyPos="x" id="e1det_gneE29_1" lane="gneE29_1" pos="63.620000000000005"/>
    <e1Detector file="e1output.xml" freq="120" friendlyPos="x" id="e1det_gneE29_2" lane="gneE29_2" pos="63.620000000000005"/>
</additional>
